100
elementary file
O 0.0 0.0 0.0
C -0.184833010626 -0.00881061561908 -0.982730446885
C -0.303304837646 -0.991684780752 -1.12387860209
C 0.56833473304 -1.34971887836 -0.789130870564
C 0.130306474025 -0.498005696742 -1.07673459196
C 0.751923342274 -0.972592831234 -1.69991957323
C 0.351250719906 -0.0688956130905 -1.85089237742
C -0.0445420556418 0.787516118238 -1.5193700927
C -0.65776157387 1.23889308617 -0.871125805961
C -1.54666467502 0.996141423107 -1.25961378112
C -0.845459538116 0.721328974494 -1.91748114927
C -1.52926162254 1.31427900452 -1.49224595408
C -1.56650059206 1.34430895327 -0.493390878843
C -1.87291852077 2.0247182145 -1.15908697332
C -1.70256375045 1.46824222183 -1.97229895172
C -1.80688086252 1.38048204265 -0.981634482245
C -2.12836941222 2.08129962479 -0.344845797527
C -2.84818468446 1.40380864252 -0.496080525018
C -2.38134409519 1.84028522471 -1.2652021392
C -2.21987827957 2.62664893317 -0.668912856728
C -1.22559360491 2.53956333669 -0.730671132414
C -1.22487060526 2.5395303337 -1.73067087051
C -0.970042916651 3.28572395845 -2.345697637
C -1.63955010002 2.833853329 -1.75614436065
C -1.16176254387 3.42904709891 -2.4022584585
C -1.18405300318 4.35084951044 -2.78927712669
C -2.03699765548 4.81825314251 -2.55685667827
C -1.63681439226 4.61593966427 -1.66303196819
C -1.4235767816 5.36031988683 -2.29582561991
C -2.11341274131 5.25149021454 -3.01156471422
C -2.15046775259 4.25306712398 -2.96939531313
C -2.6359274407 3.89887811047 -2.17009622398
C -3.17254781078 3.13246819533 -2.52316055295
C -2.98802272813 3.17077093927 -1.54107939863
C -3.38923595005 3.95869426317 -1.07395544697
C -3.59876340494 4.48810864529 -1.89603735144
C -4.14621276518 4.33989306535 -1.07242862162
C -4.68280316425 3.74668010759 -1.67256954704
C -5.65808993202 3.83166643144 -1.46862581614
C -4.7468241186 3.52059053666 -1.73848949466
C -5.06547240319 2.88216545375 -2.43911541784
C -5.86918113646 2.42548618657 -2.0576756205
C -5.04586986351 2.19259798186 -1.54006415237
C -5.56932413343 1.97070978556 -2.3627191564
C -5.47765772348 1.97446417204 -1.3669364623
C -4.98460451905 1.6044925926 -0.579523249294
C -5.28218640572 1.66786844321 -1.53211367665
C -5.25176734213 0.696435056565 -1.29675893188
C -5.67572262978 1.48399871349 -1.74397856513
C -6.42230965829 1.36295903859 -1.08979418289
C -6.03187813156 1.98161714804 -1.77157520826
C -6.72438457742 1.84202795359 -1.06379722101
C -6.17977008538 2.06163147009 -1.87322254221
C -5.94530857181 1.95284541477 -2.83924189648
C -6.06339382251 1.97182615057 -3.83206393755
C -5.27470545745 2.57772620313 -3.93625505582
C -5.8004998421 2.57838481884 -4.78686650137
C -4.90587392102 2.40672009437 -5.1993900567
C -4.99193078232 3.24577298156 -4.66218947116
C -4.4109487913 2.6839845772 -4.07324659207
C -4.68760372255 3.54560926368 -4.49876386394
C -4.5203995492 3.34773380184 -5.4646251718
C -4.2064205058 3.48994609707 -6.40334388547
C -4.1531695064 3.26267295712 -7.37571791377
C -4.68287266385 3.03412379053 -6.55890713799
C -5.31289225282 3.80686762751 -6.48182095292
C -4.35918718121 3.61735924189 -6.71534441676
C -4.03834348288 3.60532766508 -5.76828868324
C -3.04840394373 3.59130660391 -5.90908328069
C -2.74867651577 3.30302142007 -4.99965757086
C -1.80618565641 3.07930120651 -4.75134275844
C -1.17833672514 2.52663568056 -5.29939981381
C -0.334662383588 2.35794339547 -4.78973667177
C 0.423559519688 1.72756980094 -4.62321737345
C 1.31931355584 1.32836291354 -4.42761939859
C 1.31888214372 1.32261266817 -3.42763602444
C 2.26067414651 1.02550648081 -3.27029646512
C 2.97136315572 0.666186559667 -2.6654739073
C 3.78137949781 0.244080990646 -2.25841074985
C 4.3512441222 0.778890416553 -1.63452519318
C 5.29116583369 0.662280450845 -1.95538231427
C 6.17816856178 0.679575882856 -1.49394214654
C 6.68499377619 1.52981677612 -1.35174993345
C 7.11379100297 2.08231443221 -0.636991737748
C 8.10897151528 2.01272725549 -0.567902138239
C 8.9255242367 1.47711490145 -0.783218322802
C 9.87974828816 1.25305563934 -0.585092335926
C 10.7807901275 0.821057634757 -0.623839308523
C 11.7424434131 1.07045688883 -0.737957537843
C 12.581467617 1.00227821591 -0.198151967484
C 13.2614442827 0.393123331067 0.209968186842
C 14.1068752353 0.0372295561883 -0.188260548193
C 14.917924109 -0.379562207978 0.222207903555
C 14.6493741818 0.470125915985 -0.231566300884
C 15.035501437 -0.247162863268 0.348435897349
C 15.1018778115 0.537346447315 -0.268118494831
C 14.6592905096 -0.245966693712 0.168386949877
C 15.5160875014 0.209437327371 -0.0734933766382
C 14.7069664223 -0.372099049601 -0.157983148689
O 15.0 0.0 0.0
